BEGIN Options
  Verbose = 3
  MessageFile = dewater_messages.txt
END Options

BEGIN Simulation
  SimCommand = "..\..\bin\mf2005dbl ..\data\dewatermb.nam"
END Simulation

BEGIN Model_Command_Lines
  command = ..\data\dewatermb_cmr.bat
    commandid = Dewatermb_cmr  
END Model_Command_Lines

BEGIN Parallel_Control
  parallel=false
END Parallel_Control
