BEGIN Options
  Verbose = 3
  MessageFile = drain_rate_messages.txt
END Options

BEGIN Simulation
  SimCommand = "..\..\bin\mf2005dbl ..\data\drain_rate.nam"
END Simulation

BEGIN Model_Command_Lines
  command = ..\data\drain_rate_cmr.bat
  commandid = Drain_rate_cmr  
END Model_Command_Lines

BEGIN Parallel_Control
  parallel=false  wait=0.1  
  VerboseRunner=4
  AutoStopRunners = true
  TimeOutFactor = 10.0
END Parallel_Control

BEGIN Parallel_Runners table
  nrow=2 ncol=3 columnlabels
  RunnerName  RunnerDir   RunTime
  Runner1     ..\runner1\  1.0
  Runner2     ..\runner2\  1.0
END Parallel_Runners


