BEGIN Options
  Verbose = 3
  MessageFile = mnwsupply_messages.txt
END Options

BEGIN Simulation
  SimCommand = "..\..\bin\mf2005dbl ..\data\mnwsupply.nam"
END Simulation

BEGIN Model_Command_Lines
  command = ..\data\mnwsupply_cmr.bat
  commandid = mnwsupply_cmr  
END Model_Command_Lines

BEGIN Parallel_Control
  parallel=false  
END Parallel_Control


