#SEAWATER Sample Problem, HEDCON file
#February 20, 2005
 1                              #1-IPRN
 3 0  10  20                    #2-NHB NDD NDF NGD
 m_01  1  7 27  le 5. 1         #3-HBNAME LAYH ROWH COLH TYPH BND NSP
 m_02  1 11 27  le 5. 1
 m_03  1 15 27  le 5. 1
 hd_01 1  1 29  2 1 29 0.05 1    #5-HDIFNAME LAY1 ROW1 COL1 LAY2 ROW2 COL2 HD NSP
 hd_02 1  3 29  2 3 29 0.05 1
 hd_03 1  5 29  2 5 29 0.05 1
 hd_04 1  7 29  2 7 29 0.05 1
 hd_05 1  9 29  2 9 29 0.05 1
 hd_06 1 11 29  2 11 29 0.05 1
 hd_07 1 13 29  2 13 29 0.05 1
 hd_08 1 15 29  2 15 29 0.05 1
 hd_09 1 17 29  2 17 29 0.05 1
 hd_10 1 19 29  2 19 29 0.05 1
 gd_01 1  1 28 1  1 30 400. 0.00375 1 #6-GRADNAME (L,R,C)1 (L,R,C)2 LEN GRAD NSP 
 gd_02 2  1 28 2  1 30 400. 0.00375 1
 gd_03 1  3 28 1  3 30 400. 0.00375 1
 gd_04 2  3 28 2  3 30 400. 0.00375 1
 gd_05 1  5 28 1  5 30 400. 0.00375 1
 gd_06 2  5 28 2  5 30 400. 0.00375 1
 gd_07 1  7 28 1  7 30 400. 0.00375 1
 gd_08 2  7 28 2  7 30 400. 0.00375 1
 gd_09 1  9 28 1  9 30 400. 0.00375 1
 gd_10 2  9 28 2  9 30 400. 0.00375 1
 gd_11 1 11 28 1 11 30 400. 0.00375 1
 gd_12 2 11 28 2 11 30 400. 0.00375 1
 gd_13 1 13 28 1 13 30 400. 0.00375 1
 gd_14 2 13 28 2 13 30 400. 0.00375 1
 gd_15 1 15 28 1 15 30 400. 0.00375 1
 gd_16 2 15 28 2 15 30 400. 0.00375 1
 gd_17 1 17 28 1 17 30 400. 0.00375 1
 gd_18 2 17 28 2 17 30 400. 0.00375 1
 gd_19 1 19 28 1 19 30 400. 0.00375 1
 gd_20 2 19 28 2 19 30 400. 0.00375 1





