BEGIN Options
  Verbose = 3
  MessageFile = seawater_messages.txt
END Options

BEGIN Simulation
  SimCommand = "..\..\bin\mf2005dbl ..\data\seawater.nam"
END Simulation

BEGIN Model_Command_Lines
  command = ..\data\seawater_cmr.bat
  commandid = Seawater_cmr  
END Model_Command_Lines

BEGIN Parallel_Control
  Parallel=false
END Parallel_Control
