      MODULE GWM1STA3
C     VERSION: 06AUG2015
      USE GWM_SUBS, ONLY: FUZZY_EQUALS, IGETUNIT
      USE GWM_STOP, ONLY:   GSTOP
      USE MF2005_UTLS, ONLY: U2DINT, URDCOM, URWORD
      IMPLICIT NONE
      PRIVATE
      PUBLIC::STANUM,SVNAME,SVBASE,SVILOC,SVJLOC,
     &        SVKLOC,SVSP,FLOWTYPE,STASTATE,STASTATE0,STATERES,STARHS,
     &        NHVAR,NRVAR,NSVAR,NDVAR,NSTADEP,GWMSTADAT
      PUBLIC::GWM1STA3AR,GWM1STA3OS,GWM1STA3FP,GWM1STA3FPR,GWM1STA3OT
C
      INTEGER, PARAMETER :: I4B = SELECTED_INT_KIND(9)
      INTEGER, PARAMETER :: I2B = SELECTED_INT_KIND(4)
      INTEGER, PARAMETER :: SP = KIND(1.0)
      INTEGER, PARAMETER :: DP = KIND(1.0D0)
      INTEGER, PARAMETER :: LGT = KIND(.TRUE.)
C
C-----VARIABLES FOR STATE VARIABLES
      INTEGER(I4B),SAVE::STANUM,NHVAR,NRVAR,NSVAR,NDVAR,NSTADEP
      CHARACTER(LEN=10),SAVE,ALLOCATABLE::SVNAME(:)
      REAL(DP),SAVE,ALLOCATABLE::SVBASE(:)
      INTEGER(I4B),SAVE,ALLOCATABLE::SVILOC(:),SVJLOC(:),SVKLOC(:)
      INTEGER(I4B),SAVE,ALLOCATABLE::SVSP(:,:)
      lOGICAL     ,SAVE,ALLOCATABLE::FLOWTYPE(:)
      INTEGER(I4B),SAVE,ALLOCATABLE::GRDLOCSTA(:),NSSVGZL(:)
      INTEGER(I4B),SAVE,ALLOCATABLE::SSVGLOC(:,:),SSVZLOC(:,:)
      REAL(DP),SAVE,ALLOCATABLE::STASTATE(:),STASTATE0(:),STATERES(:,:),
     &        STARHS(:)
      INTEGER(I4B),SAVE,POINTER::SVZONE(:,:,:,:)
      INTEGER(I4B),SAVE,POINTER::MDCELLOC(:,:)
C
      TYPE MDCEL_IJK
        INTEGER(I4B),POINTER,DIMENSION(:,:)::MDCELLOC_TARGET
      END TYPE
      TYPE, PUBLIC :: GWMSTATYPE
        INTEGER(I4B),POINTER,DIMENSION(:,:,:,:)::SVZONE_TARGET
        TYPE(MDCEL_IJK),POINTER,DIMENSION(:)::MDCELVAR
      END TYPE
      TYPE(GWMSTATYPE), SAVE  ::GWMSTADAT(10) 
C
C      STANUM   -total number of state variables     
C      NHVAR    -number of head state variables
C      NRVAR    -number of streamflow state variables
C      NSVAR    -number of storage state variables
C      NDVAR    -number of drain state variables
C      SVNAME   -name of state variable (10 digits)
C      SVBASE   -current value of state variable during solution process 
C      SVILOC(I), SVJLOC(I), SVKLOC(I)
C               -i,j,k location in MODFLOW grid of the ith head state variable
C                  or segment (SVILOC) and reach (SVJLOC) for ith streamflow SV
C                  or number of cells in drain state variable (SVILOC).
C      SVZONE   - indicator array for cells to be included in calculation of storage change
c                  for storage state variables
C      SVSP     -2-d array recording information about the stress period(s) in which the
C                  state variable is to be evaluated; for head and streamflow state 
C                  variables, the second entry is ignored; for storage state variables the 
C                  two entries record start and end times for state variable evaluation;
C                  for drain state variables, if the second entry is negative, the first 
C                  entry is the stress period to evaluate flow; if the second entry is
C                  positive the two entries record start and end times for volume evaluation.
C      FLOWTYPE -logical array indicating if constraint is flow-type (TRUE) or leakage type.
C      MDCELLOC -2-d array storing the layer, row, column indices for the set of drain cells 
C                  assoicated with the ith Drain state variable listed in MDCELVAR
C      GRDLOCSTA-grid number on which state variable is located
C      NSSVGZL  -vector containing the number of grids associated with a storage state variable
C      SSVGLOC  -vector holding storage state variable grid number information 
C      SSVZLOC  -vector holding storage state variable zone number information 
C      STASTATE -vector containing state values resulting from most 
C                 recent flow process simulation
C      STASTATE0-vector used to store base state values during pertubation
C                 for response matrix generation
C      STATERES -matrix response coefficient for the state variable to pumping
C      STARHS   -stores non-variable information from Taylor series eqn for state variables
C
C-----ERROR HANDLING
      INTEGER(I2B)::ISTAT  
      CHARACTER(LEN=200)::FLNM
      CHARACTER(LEN=20)::FILACT,FMTARG,ACCARG 
      INTEGER(I4B)::NDUM
      REAL(SP)::RDUM
C
      CONTAINS
C*************************************************************************
      SUBROUTINE GWM1STA3AR(FNAMEN,IOUT,NPER,NGRIDS)
C*************************************************************************
C     VERSION: 29DEC2011
C     PURPOSE: READ INPUT FROM THE STATE VARIABLE FILE (STAVAR)
C---------------------------------------------------------------------------
      USE GWM1BAS3, ONLY : GWM1BAS3PS,ZERO,CUTCOM
      USE GLOBAL,   ONLY : NCOL,NROW,NLAY
      USE GWM1DCV3, ONLY : NFVAR,FVNCELL,FVMNW,GRDLOCDCV
      INTEGER(I4B),INTENT(IN)::IOUT,NPER,NGRIDS
      CHARACTER(LEN=200),INTENT(IN),DIMENSION(NGRIDS)::FNAMEN
C-----LOCAL VARIABLES  
      CHARACTER(LEN=10),SAVE,ALLOCATABLE::SVNM(:)
      INTEGER(I4B),SAVE,ALLOCATABLE::NG(:),NLMX(:)
      INTEGER(I4B),DIMENSION(NGRIDS)::NHVARG,NRVARG,NSVARG,NDVARG
      INTEGER(I4B),DIMENSION(NGRIDS)::NUNOPN,NSVARGU
      INTEGER(I4B)::LOCAT,ISTART,ISTOP,IPRN,IPRNG,LLOC,INMS,INMF,BYTES
      INTEGER(I4B)::JSVROW,NSEG,NRCH,SVSPL,NMDCEL,DRNTYP
      INTEGER(I4B)::ICZS,ICZF,SPSTRT,SPEND,NSVZL,NGMAX,SEQNUM
      INTEGER(I4B)::G,I,J,K,L,II,JJ,KK,IR,IC,IL,JE,JS,JZ,JESV,JSR,IA
      INTEGER(I4B)::MNWCNT,FLORLK,NSLOC
      CHARACTER(LEN=200)::LINE
      CHARACTER(LEN=10)::TCTNM
      CHARACTER(LEN=20)::TCMNW
C++++++++++++++++++++++++++++++++++++++++++++++++++++++++++++++++++++++++
C
C-----LOOP OVER ALL GRIDS TO OPEN FILES AND COUNT STATE VARIABLES
      NHVARG = 0
      NRVARG = 0
      NSVARG = 0
      NDVARG = 0
      NSVARGU= 0
      IPRN = -1
      DO 100 G=1,NGRIDS
        IF(FNAMEN(G).NE.' ')THEN
C---------OPEN FILE
          NUNOPN(G)=IGETUNIT(10,200)             
          LOCAT=NUNOPN(G)
          WRITE(IOUT,1000,ERR=990)LOCAT,FNAMEN(G)
          OPEN(UNIT=LOCAT,FILE=FNAMEN(G),ACTION='READ',ERR=999)
C---------CHECK FOR COMMENT LINES
          CALL URDCOM(LOCAT,IOUT,LINE)
C
C---------READ IPRN
          LLOC=1
          CALL URWORD(LINE,LLOC,ISTART,ISTOP,2,IPRNG,RDUM,IOUT,LOCAT)
          IF(IPRNG.EQ.0 .OR. IPRNG.EQ.1)THEN
            IPRN = MAX(IPRN,IPRNG)               ! USE MOST DETAILED ECHO
          ELSE
            WRITE(IOUT,2000,ERR=990)IPRNG        ! INVALID VALUE OF IPRN
            CALL GSTOP(' ')
          ENDIF
C
C---------READ NHVAR, NRVAR, NSVAR AND NDVAR
          READ(LOCAT,'(A)',ERR=991)LINE
          CALL CUTCOM(LINE,200)                  ! REMOVE COMMENTS FROM LINE
          LLOC=1
          CALL URWORD(LINE,LLOC,ISTART,ISTOP,2,NHVARG(G),RDUM,IOUT,
     &                LOCAT)
          CALL URWORD(LINE,LLOC,ISTART,ISTOP,2,NRVARG(G),RDUM,IOUT,
     &                LOCAT)
          CALL URWORD(LINE,LLOC,ISTART,ISTOP,2,NSVARG(G),RDUM,IOUT,
     &                LOCAT)
          CALL URWORD(LINE,LLOC,ISTART,ISTOP,2,NDVARG(G),RDUM,IOUT,
     &                LOCAT)
          IF(NHVARG(G)+NRVARG(G)+NSVARG(G)+NDVARG(G).LE.0)THEN
            CALL GWM1BAS3PS(' PROGRAM STOPPED: NO STATE
     &                    VARIABLES ON GRID',G)
            CALL GSTOP(' ')
          ENDIF
        ENDIF
  100 ENDDO
C
C-----SUM UP THE STATE VARIABLES
      NHVAR=SUM(NHVARG)                          ! TOTAL NUMBER OF HEAD SV
      NRVAR=SUM(NRVARG)                          ! TOTAL NUMBER OF STRM SV
      NSVAR=SUM(NSVARG)     ! HERE, NSVAR=# OF SV READ FROM FILES
      IF(NSVAR.GT.0)THEN
        ALLOCATE(SVNM(NSVAR),NG(NSVAR)) ! TEMPORARY STORAGE
        ! ASSEMBLE LIST OF STATE VARIABLES
        CALL SVREAD(SVNM,NG)
        ! SEARCH OVER STORAGE STATE VARIABLE NAMES; FIND NUMBER UNIQUE  
        CALL SVSRCH(SVNM,NG,NSVAR,NSVARGU,NGMAX)
        DEALLOCATE (SVNM,NG)                     ! ERASE TEMP STORAGE
        NSVAR=SUM(NSVARGU)  ! NOW, NSVAR=NUMBER OF UNIQUE STATE VARIABLES
      ENDIF
      NDVAR=SUM(NDVARG)                          ! TOTAL NUMBER OF DRAIN SV
      STANUM=NHVAR+NRVAR+NSVAR+NDVAR             ! TOTAL NUMBER OF SV
C
C-----WRITE HEADER AND ALLOCATE SPACE FOR STATE VARIABLE INFORMATION
      IF(STANUM.GT.0)THEN
        WRITE(IOUT,3000,ERR=990)NHVAR,NRVAR,NSVAR,NDVAR
        IF(NSVAR.NE.SUM(NSVARG))WRITE(IOUT,3010,ERR=990)SUM(NSVARG)
        ALLOCATE (SVNAME(STANUM),SVBASE(STANUM),
     &      SVSP(STANUM,2),FLOWTYPE(STANUM),GRDLOCSTA(STANUM), 
     &      SVILOC(STANUM),SVJLOC(STANUM),SVKLOC(STANUM),
     &      STASTATE(STANUM),STASTATE0(STANUM),
     &      STATERES(STANUM,NFVAR),STARHS(STANUM),STAT=ISTAT)
        IF(ISTAT.NE.0)GOTO 992 
        BYTES = 10*STANUM + 8*STANUM +  3*4*STANUM + 4*3*STANUM +
     &          2*8*STANUM + 8*STANUM*NFVAR + 8*STANUM
        ALLOCATE(NSSVGZL(NSVAR),SSVGLOC(NSVAR,NGMAX),
     &           SSVZLOC(NSVAR,NGMAX),STAT=ISTAT)
        IF(ISTAT.NE.0)GOTO 992 
        BYTES = BYTES + 4*NSVAR + 2*4*NSVAR*NGMAX
        DO 120 G=1,NGRIDS                 ! ALLOCATE ON EACH GRID
          IF(NSVARG(G).GT.0)THEN
            CALL SGWF2BAS7PNT(G)                 ! POINT TO GRID DIMENSIONS
         ALLOCATE (GWMSTADAT(G)%SVZONE_TARGET(NCOL,NROW,NLAY,NSVARG(G)),
     &                STAT=ISTAT)
            IF(ISTAT.NE.0)GOTO 992 
            BYTES = BYTES + 4*NCOL*NROW*NLAY*NSVARG(G)
          ENDIF
 120    ENDDO
      ELSE
        RETURN                                   ! NO STATE VARIABLES
      ENDIF
C
C-----READ HEAD STATE VARIABLE INFORMATION
      JSVROW=0
      DO 200 G=1,NGRIDS
        IF(FNAMEN(G).NE.' '.AND.NHVARG(G).GT.0)THEN
C---------LOOP OVER HEAD STATE VARIABLES IN EACH ACTIVE GRID FILE
          LOCAT=NUNOPN(G)  
          DO 180 J=1+JSVROW,NHVARG(G)+JSVROW
            READ(LOCAT,'(A)',ERR=991)LINE
            LLOC=1
C              TRACK START AND END COL FOR SVNAME
            CALL URWORD(LINE,LLOC,INMS,INMF,0,NDUM,RDUM,IOUT,LOCAT)
            TCTNM=LINE(INMS:INMF)   
            CALL URWORD(LINE,LLOC,ISTART,ISTOP,2,IL,RDUM,IOUT,LOCAT)
            IF(IL.GT.0)THEN ! THIS IS A CELL CONSTRAINT; READ ROW,COL
              CALL URWORD(LINE,LLOC,ISTART,ISTOP,2,IR,RDUM,IOUT,LOCAT)
              CALL URWORD(LINE,LLOC,ISTART,ISTOP,2,IC,RDUM,IOUT,LOCAT)
            ELSE             ! THIS IS AN MNW WELL CONSTRAINT;READ WELLID
              CALL URWORD(LINE,LLOC,INMS,INMF,0,NDUM,RDUM,IOUT,LOCAT)
            ENDIF
            CALL URWORD(LINE,LLOC,ISTART,ISTOP,2,SVSPL,RDUM,IOUT,LOCAT)
C-----------PROCESS NAME OF STATE VARIABLE; CHECK IF NAME UNIQUE
            CALL CHKNAME(TCTNM,G,J,-1)
            SVNAME(J)=TCTNM                      ! SAVE THE NAME
C-----------PROCESS ROW, COLUMN, LAYER LOCATIONS FOR THIS VARIABLE
            CALL LOADSV(G)                       ! TEST INPUT AND STORE LOCATION
C-----------STORE STRESS PERIOD AND GRID FOR EVALUATION OF THIS STATE VARIABLE
            SVSP(J,1)=SVSPL
            GRDLOCSTA(J)=G
 180      ENDDO
          JSVROW=JSVROW+NHVARG(G)
        ENDIF
 200  ENDDO
C
C-----READ STREAMFLOW STATE VARIABLE INFORMATION
      DO 300 G=1,NGRIDS
        IF(FNAMEN(G).NE.' '.AND.NRVARG(G).GT.0)THEN
C---------LOOP OVER STREAMFLOW STATE VARIABLES IN EACH ACTIVE GRID FILE
          LOCAT=NUNOPN(G)  
          DO 280 J=1+JSVROW,NRVARG(G)+JSVROW
            READ(LOCAT,'(A)',ERR=991)LINE
            CALL CUTCOM(LINE,200)                ! REMOVE COMMENTS FROM LINE
            LLOC=1
C              TRACK START AND END COL FOR SVNAME
            CALL URWORD(LINE,LLOC,INMS,INMF,0,NDUM,RDUM,IOUT,LOCAT)
            CALL URWORD(LINE,LLOC,ISTART,ISTOP,2,NSEG,RDUM,IOUT,LOCAT)
            CALL URWORD(LINE,LLOC,ISTART,ISTOP,2,NRCH,RDUM,IOUT,LOCAT)
            CALL URWORD(LINE,LLOC,ISTART,ISTOP,2,SVSPL,RDUM,IOUT,LOCAT)
            CALL URWORD(LINE,LLOC,ISTART,ISTOP,2,FLORLK,RDUM,IOUT,LOCAT)
C-----------PROCESS NAME OF STATE VARIABLE; CHECK IF NAME UNIQUE
            CALL CHKNAME(LINE(INMS:INMF),G,J,-1)
            SVNAME(J)=LINE(INMS:INMF)            ! SAVE THE NAME
C-----------PROCESS SEGMENT AND REACH NUMBER 
            IF(NSEG.LT.0)CALL GSTOP('PROGRAM STOPPED: NSEG IS NEGATIVE')
            SVILOC(J)=NSEG                       ! STORE SEGMENT NUMBER 
            IF(NRCH.LT.0)CALL GSTOP('PROGRAM STOPPED: NRCH IS NEGATIVE')
            SVJLOC(J)=NRCH                       ! STORE REACH NUMBER 
C-----------STORE STRESS PERIOD AND GRID FOR EVALUATION OF THIS STATE VARIABLE
            SVSP(J,1)=SVSPL
            GRDLOCSTA(J)=G
C-----------DETERMINE IF THIS IS A FLOW OR LEAK TYPE CONSTRAINT
            IF(FLORLK.EQ.0)THEN
              FLOWTYPE(J) = .TRUE.
            ELSE
              FLOWTYPE(J) = .FALSE.
            ENDIF
 280      ENDDO
          JSVROW=JSVROW+NRVARG(G)
        ENDIF
 300  ENDDO
C
C-----WRITE INFORMATION TO OUTPUT FILE
      IF(IPRN.EQ.1)THEN
C-------WRITE HEAD SV INFO
        IF(NHVAR.GT.0)THEN
          WRITE(IOUT,5000,ERR=990)
          DO 500 J=1,NHVAR
            IF(SVKLOC(J).EQ.0)THEN ! THIS IS A FLAG; ITS AN MNW WELL HEAD
              MNWCNT = 0         ! COUNT THE NUMBER OF MNW-TYPE VARIABLES
              LOOP_FVW : DO JJ=1,NFVAR     ! LOOP OVER GWM FLOW VARIABLES
                IF(FVNCELL(JJ).LT.0)THEN   ! THIS IS MNW-TYPE FLOW VARIABLE
                  DO K=1,ABS(FVNCELL(JJ))  ! LOOP OVER CELLS FOR THIS VARIABLE
                    MNWCNT = MNWCNT + 1
                    IF(MNWCNT.EQ.SVILOC(J))THEN ! MATCH FOUND 
                      TCMNW=FVMNW(JJ)%FVWELLID(K)
                      EXIT LOOP_FVW
                    ENDIF               
                  ENDDO
                ENDIF
              ENDDO LOOP_FVW
              WRITE(IOUT,5110,ERR=990)J,SVNAME(J),TCMNW
            ELSE
              WRITE(IOUT,5100,ERR=990)J,SVNAME(J),
     &             SVKLOC(J),SVILOC(J),SVJLOC(J)
            ENDIF
            WRITE(IOUT,5200,ERR=990)SVSP(J,1)
  500     ENDDO
        ENDIF
C-------WRITE STREAMFLOW SV INFO
        IF(NRVAR.GT.0)THEN
          WRITE(IOUT,6000,ERR=990)
           DO 600 J=NHVAR+1,NHVAR+NRVAR
             IF(FLOWTYPE(J))THEN
               WRITE(IOUT,6100,ERR=990)J,SVNAME(J),
     &                SVILOC(J),SVJLOC(J)
             ELSE
               WRITE(IOUT,6102,ERR=990)J,SVNAME(J),
     &                SVILOC(J),SVJLOC(J)
             ENDIF
             WRITE(IOUT,6200,ERR=990)SVSP(J,1)
  600      ENDDO
        ENDIF
C-------WRITE STORAGE SV HEADER
        IF(NSVAR.GT.0)WRITE(IOUT,6500,ERR=990)
      ENDIF
C
C-----READ STORAGE STATE VARIABLE INFORMATION
      JSR = JSVROW  ! SET INDEX TO END OF HEAD AND STRM SV
      JS  = JSR     ! INITIALIZE COUNTER FOR NUMBER OF UNIQUE STATE VARIABLES
      DO 700 G=1,NGRIDS
        IF(FNAMEN(G).NE.' '.AND.NSVARG(G).GT.0)THEN
C---------LOOP OVER STORAGE STATE VARIABLES IN EACH ACTIVE GRID FILE
          LOCAT=NUNOPN(G)  
          SVZONE=>GWMSTADAT(G)%SVZONE_TARGET   ! POINT TO CORRECT SVZONE ARRAY 
          CALL SGWF2BAS7PNT(G)                 ! POINT TO GRID DIMENSIONS
          DO 680 JZ=1+JSVROW,NSVARG(G)+JSVROW
            READ(LOCAT,'(A)',ERR=991)LINE
            LLOC=1
C-----------INTERPRET LINE
            CALL URWORD(LINE,LLOC,INMS,INMF,0,NDUM,RDUM,IOUT,LOCAT)
            CALL URWORD(LINE,LLOC,ISTART,ISTOP,2,SPSTRT,RDUM,IOUT,LOCAT) 
            CALL URWORD(LINE,LLOC,ISTART,ISTOP,2,SPEND,RDUM,IOUT,LOCAT)
            CALL URWORD(LINE,LLOC,ICZS,ICZF,1,NDUM,RDUM,IOUT,LOCAT)
C-----------PROCESS NAME OF STATE VARIABLE; CHECK THAT NAME IS UNIQUE
            JE = 0  ! TELL CHKNAME THAT THIS IS A STORAGE STATE VARIABLE
            CALL CHKNAME(LINE(INMS:INMF),G,JS,JE)  
            IF(JE.EQ.0)THEN                      ! NAME IS UNIQUE
              JS = JS + 1                        ! INCREMENT # UNIQUE SV
              SVNAME(JS)=LINE(INMS:INMF)         ! SAVE THE NAME
              SVSP(JS,1)=SPSTRT                  ! STORE START STRESS PERIODS
              SVSP(JS,2)=SPEND                   ! STORE END STRESS PERIOS
              GRDLOCSTA(JS)=G
              JESV = JS-JSR                      ! SHIFT TO SSV INDEXING
              NSSVGZL(JESV)= 1                   ! INITIALIZE NUMBER OF GRIDS
              SSVGLOC(JESV,NSSVGZL(JESV)) = G    ! STORE GRID NUMBER
              SSVZLOC(JESV,NSSVGZL(JESV)) = JZ   ! STORE ZONE NUMBER
              IF(IPRN.EQ.1)                      ! WRITE INFORMATION         
     &          WRITE(IOUT,6600,ERR=990)
     &          JZ,SVNAME(JS),SVSP(JS,1),SVSP(JS,2)
            ELSEIF(JE.GT.0)THEN                  ! NAME EXISTS ON ANOTHER GRID
C             JE IS THE SEQUENCE NUMBER FOR THE EXISTING STORAGE STATE VARIABLE
              JESV = JE-JSR                      ! SHIFT TO SSV INDEXING
              NSSVGZL(JESV)= NSSVGZL(JESV)+1     ! INCREMENT NUMBER OF GRIDS
              SSVGLOC(JESV,NSSVGZL(JESV)) = G    ! STORE GRID NUMBER
              SSVZLOC(JESV,NSSVGZL(JESV)) = JZ   ! STORE ZONE NUMBER
C             CHECK THAT SPSTRT AND SPEND READ ON THIS GRID ARE VALID
              IF(SVSP(JE,1).NE.SPSTRT.OR.SVSP(JE,2).NE.SPEND)THEN
                CALL GWM1BAS3PS(' PROGRAM STOPPED: SPSTRT/SPEND DO NOT M
     &ATCH FOR STORAGE STATE VARIABLE ON GRID',G)
                CALL GSTOP(' ')
              ENDIF     
              IF(IPRN.EQ.1)                      ! WRITE INFORMATION         
     &        WRITE(IOUT,6605,ERR=990)JZ,SVNAME(JE),GRDLOCSTA(JE)
            ENDIF
C
C-----------PROCESS THE ZONE FOR STORAGE VARIABLE 
            IF(LINE(ICZS:ICZF).EQ.'ALL')THEN     ! ALL DOMAIN IN ZONE
              DO 620 KK=1,NLAY
              DO 620 II=1,NROW
              DO 620 JJ=1,NCOL
                SVZONE(JJ,II,KK,JZ)=1
  620         ENDDO 
              IF(IPRN.EQ.1)WRITE(IOUT,6610,ERR=990)
            ELSEIF(LINE(ICZS:ICZF).EQ.'ZONE')THEN ! READ ZONE
              SVZONE(:,:,:,JZ) = 0               ! EMPTY ZONE ARRAY
              READ(LOCAT,*,ERR=991)NSVZL         ! READ NUMBER OF LAYERS
              IF(IPRN.EQ.1.AND.NSVZL.EQ.1)WRITE(IOUT,6620,ERR=990)
              IF(IPRN.EQ.1.AND.NSVZL.GT.1)WRITE(IOUT,6622,ERR=990)NSVZL
              DO 640 K=1,NSVZL
                READ(LOCAT,*,ERR=991)KK          ! READ LAYER NUMBER (LNUM)
                CALL U2DINT(SVZONE(:,:,KK,JZ),
     &          '     STATE VARIABLE ZONE',NROW,NCOL,KK,LOCAT,IOUT)
  640         ENDDO 
            ELSE                                 ! INVALID ENTRY
              CALL GWM1BAS3PS(' PROGRAM STOPPED: INVALID ENTRY CZONE FOR
     & STORAGE STATE VARIABLE ON GRID',G)
              CALL GSTOP(' ')
            ENDIF
 680      ENDDO
          JSVROW=JSVROW+NSVARG(G) ! INCREMENT JSVROW FOR SV READ
        ENDIF
 700  ENDDO
      JSVROW = JSR + NSVAR  ! NOW, JSVROW IS NUMBER OF UNIQUE SV
C
C-----READ DRAIN STATE VARIABLE INFORMATION
C-----WRITE DRAIN SV HEADER
      IF(NDVAR.GT.0.AND.IPRN.EQ.1)WRITE(IOUT,8500,ERR=990)
      DO 800 G=1,NGRIDS
        IF(FNAMEN(G).NE.' '.AND.NDVARG(G).GT.0)THEN
C---------LOOP OVER STREAMFLOW STATE VARIABLES IN EACH ACTIVE GRID FILE
          LOCAT=NUNOPN(G) 
C---------ALLOCATE FOR NUMBER OF DRAINS SV ON THIS GRID 
          ALLOCATE (GWMSTADAT(G)%MDCELVAR(NDVARG(G))) 
          JE = 0
          DO 780 J=1+JSVROW,NDVARG(G)+JSVROW
            JE = JE+1
            READ(LOCAT,'(A)',ERR=991)LINE
            LLOC=1
C              TRACK START AND END COL FOR SVNAME
            CALL URWORD(LINE,LLOC,INMS,INMF,0,NDUM,RDUM,IOUT,LOCAT)
            CALL URWORD(LINE,LLOC,ISTART,ISTOP,2,NMDCEL,RDUM,IOUT,LOCAT)
            CALL URWORD(LINE,LLOC,ISTART,ISTOP,2,DRNTYP,RDUM,IOUT,LOCAT)
            CALL URWORD(LINE,LLOC,ISTART,ISTOP,2,SVSPL,RDUM,IOUT,LOCAT)
            CALL URWORD(LINE,LLOC,ISTART,ISTOP,2,SPSTRT,RDUM,IOUT,LOCAT)
            CALL URWORD(LINE,LLOC,ISTART,ISTOP,2,SPEND,RDUM,IOUT,LOCAT)
C-----------PROCESS NAME OF STATE VARIABLE; CHECK IF NAME UNIQUE
            CALL CHKNAME(LINE(INMS:INMF),G,J,-1)
            SVNAME(J)=LINE(INMS:INMF)            ! SAVE THE NAME
C-----------PROCESS DRAIN STATE VARIABLE TYPE
            IF(DRNTYP.EQ.1)THEN
              IF(SVSPL.LE.0)CALL GSTOP('PROGRAM STOPPED: SVSP IS NOT SPE
     &CIFIED, BUT DRAIN TYPE IS 1')
              SPSTRT=SVSPL                      ! STORE STRESS PERIOD HERE
              SPEND=-1                          ! USE -1 AS A FLAG FOR TYPE 1
              IF(IPRN.EQ.1)                      ! WRITE INFORMATION         
     &          WRITE(IOUT,8600,ERR=990)
     &          J,SVNAME(J),SPSTRT
            ELSEIF(DRNTYP.EQ.2)THEN
              IF(SPSTRT.LE.0)CALL GSTOP('PROGRAM STOPPED: SPSTRT IS NOT 
     &SPECIFIED, BUT DRAIN TYPE IS 2')
              IF(SPEND.LE.0)CALL GSTOP('PROGRAM STOPPED: SPEND IS NOT SP
     &ECIFIED, BUT DRAIN TYPE IS 2')
              IF(IPRN.EQ.1)                      ! WRITE INFORMATION         
     &          WRITE(IOUT,8610,ERR=990)J,SVNAME(J),SPSTRT,SPEND
            ELSE
              CALL GSTOP('PROGRAM STOPPED: INVALID VALUE OF DRAIN TYPE')
            ENDIF
            SVSP(J,1)=SPSTRT                  ! STORE START STRESS PERIODS
            SVSP(J,2)=SPEND                   ! STORE END STRESS PERIOS
C-----------PROCESS NUMBER OF DRAIN CELLS IN THIS STATE VARIABLE
            SVILOC(J)=NMDCEL                  ! STORE NUMBER OF CELLS
C-----------ALLOCATE FOR NUMBER OF CELLS ON THIS DRAIN SV
          ALLOCATE (GWMSTADAT(G)%MDCELVAR(JE)%MDCELLOC_TARGET(NMDCEL,4))     ! ALLOCATE TEMP SPACE
            BYTES = BYTES + 4*3*NMDCEL
            DO 760 II=1,NMDCEL
              READ(LOCAT,'(A)',ERR=991)LINE
              LLOC=1
              CALL URWORD(LINE,LLOC,ISTART,ISTOP,2,IL,RDUM,IOUT,LOCAT)
              CALL URWORD(LINE,LLOC,ISTART,ISTOP,2,IR,RDUM,IOUT,LOCAT)
              CALL URWORD(LINE,LLOC,ISTART,ISTOP,2,IC,RDUM,IOUT,LOCAT)
              GWMSTADAT(G)%MDCELVAR(JE)%MDCELLOC_TARGET(II,1)=IL ! PLACE L,R,C INTO
              GWMSTADAT(G)%MDCELVAR(JE)%MDCELLOC_TARGET(II,2)=IR !  STORAGE 
              GWMSTADAT(G)%MDCELVAR(JE)%MDCELLOC_TARGET(II,3)=IC !
              ! READ OPTIONAL AUXILIARY VARIABLE
              CALL URWORD(LINE,LLOC,ISTART,ISTOP,2,IA,RDUM,IOUT,LOCAT)
              IF(IA.EQ.0)THEN
                GWMSTADAT(G)%MDCELVAR(JE)%MDCELLOC_TARGET(II,4)=-1
                IF(IPRN.EQ.1)WRITE(IOUT,8620,ERR=990)IL,IR,IC ! WRITE INFO    
              ELSE
                GWMSTADAT(G)%MDCELVAR(JE)%MDCELLOC_TARGET(II,4)=IA 
                IF(IPRN.EQ.1)WRITE(IOUT,8622,ERR=990)IL,IR,IC,IA ! WRITE INFO    
              ENDIF
 760        ENDDO           
C-----------STORE STRESS PERIOD AND GRID FOR EVALUATION OF THIS STATE VARIABLE
            GRDLOCSTA(J)=G
 780      ENDDO
          JSVROW=JSVROW+NDVARG(G)
        ENDIF
 800  ENDDO
C
C-----COUNT THE NUMBER OF DEPENDENTS IMPLIED BY STATE VARIABLES
      NSTADEP = NHVAR               ! Add the head state variables
      NSTADEP = NSTADEP + NRVAR          ! Just a single simulated value
      NSTADEP = NSTADEP + NSVAR        ! Add number of storage state variables
      NSLOC = NHVAR+NRVAR+NSVAR
      DO I=NSLOC+1,NSLOC+NDVAR  ! Loop over drain state variables
        NSTADEP = NSTADEP + SVILOC(I)   ! Add # drains included in state variable
      ENDDO
C
C-----CLOSE FILE
      DO I=1,NGRIDS
        CLOSE(NUNOPN(I))
      ENDDO
      WRITE(IOUT,7000,ERR=990)BYTES
      WRITE(IOUT,7100,ERR=990)
C
      RETURN
C
 1000 FORMAT(1X,/1X,'OPENING STATE VARIABLE FILE ON UNIT ',I4,':',
     1  /1X,A200)
 2000 FORMAT(1X,/1X,'PROGRAM STOPPED. IPRN MUST BE EQUAL TO 0 OR 1: ',
     1  I4)
 2100 FORMAT(1X,/1X,'OPTIMAL STATE VARIABLE VALUES WILL BE WRITTEN ',
     1  'TO UNIT NUMBER:',I4)
 3000 FORMAT(1X,/1X,'NO. OF HEAD STATE VARIABLES (NHVAR):',
     1  T45,I8,/1X,'NO. OF STREAMFLOW STATE VARIABLES (NRVAR):',
     2  T45,I8,/1X,'NO. OF STORAGE STATE VARIABLES (NSVAR):',
     3  T45,I8,/1X,'NO. OF DRAIN STATE VARIABLES (NDVAR):',
     4  T45,I8)
 3010 FORMAT(1X,'NO. OF STORAGE VARIABLE RECORDS IN INPUT:',T45,I8)
 5000 FORMAT(/,T2,'HEAD TYPE STATE VARIABLES:',/,
     1  T30,'MNW WELLID or',/,
     1  T3,'NUMBER',T14,'NAME',T30,'LAY',T35,'ROW',
     2  T40,'COL',/,1X,'----------------------',
     3  '------------------------------------')
 5100 FORMAT(T3,I5,T14,A10,T26,3I5)
 5110 FORMAT(T3,I5,T14,A10,T26,A)
 5200 FORMAT('   AVAILABLE IN STRESS PERIOD: ',I5,/)
 6000 FORMAT(/,T2,'STREAMFLOW TYPE STATE VARIABLES:',/,
     1  T3,'NUMBER',T14,'NAME',T30,'SEG',T40,'REACH',T50,'TYPE',/,
     2  1X,'----------------------',
     3  '------------------------------------')
 6100 FORMAT(T3,I5,T14,A10,T26,I5,T40,I5,T48,'FLOW-TYPE')
 6102 FORMAT(T3,I5,T14,A10,T26,I5,T40,I5,T48,'LEAK-TYPE')
 6200 FORMAT('   AVAILABLE IN STRESS PERIOD: ',I5,/)
 6500 FORMAT(/,T2,'STORAGE TYPE STATE VARIABLES:')
 6600 FORMAT(/,' NUMBER:',I5,' NAME: ',A10,' SPSTRT:',I5,' SPEND:',I5)
 6605 FORMAT(/,' NUMBER:',I5,' NAME: ',A10,'MATCHES EXISTING STATE ',
     &       'VARIABLE ON GRID',I5)
 6610 FORMAT(T2,'STORAGE CHANGE CALCULATED FOR ',
     1  'ALL ACTIVE CELLS IN GRID')
 6620 FORMAT(T2,'STORAGE CHANGE CALCULATED FOR ',
     1  'ONE LAYER IN GRID')
 6622 FORMAT(T2,'STORAGE CHANGE CALCULATED FOR',I5,
     1  ' LAYERS IN GRID')
 7000 FORMAT(/,1X,I8,' BYTES OF MEMORY ALLOCATED TO STORE DATA FOR',
     1               ' STATE VARIABLES')
 7100 FORMAT(/,1X,'CLOSING STATE VARIABLE FILE',/)
 8500 FORMAT(/,T2,'DRAIN TYPE STATE VARIABLES:')
 8600 FORMAT(/,' NUMBER:',I5,', NAME: ',A,
     &  ', FLOW AT END OF STRESS PERIOD:',I5,/
     &  ,T2,'CALCULATED AT CELL(S):',
     &  /,T30,'LAY',T35,'ROW',T40,'COL',T45,'AUX'
     &  /,T30,'---',T35,'---',T40,'---',T45,'---')
 8610 FORMAT(/,' NUMBER:',I5,', NAME: ',A,', VOLUME FROM SPSTRT:',I5,
     &          ' TO SPEND:',I5,
     &  /,T2,'CALCULATED AT CELL(S):'
     &  /,T30,'LAY',T35,'ROW',T40,'COL',T45,'AUX'
     &  /,T30,'---',T35,'---',T40,'---',T45,'---')
 8620 FORMAT(T28,3I5,' NONE')
 8622 FORMAT(T28,4I5)
C
C-----ERROR HANDLING
  990 CONTINUE
C-----FILE-WRITING ERROR
      INQUIRE(IOUT,NAME=FLNM,FORM=FMTARG,ACCESS=ACCARG,ACTION=FILACT)
      WRITE(*,9900)TRIM(FLNM),IOUT,FMTARG,ACCARG,FILACT
 9900 FORMAT(/,1X,'*** ERROR WRITING FILE "',A,'" ON UNIT ',I5,/,
     &7X,'SPECIFIED FILE FORMAT: ',A,/
     &7X,'SPECIFIED FILE ACCESS: ',A,/
     &7X,'SPECIFIED FILE ACTION: ',A,/
     &2X,'-- STOP EXECUTION (GWM1STA3AR)')
      CALL GSTOP(' ')
C
  991 CONTINUE
C-----FILE-READING ERROR
      INQUIRE(LOCAT,NAME=FLNM,FORM=FMTARG,ACCESS=ACCARG,ACTION=FILACT)
      WRITE(*,9910)TRIM(FLNM),LOCAT,FMTARG,ACCARG,FILACT
      WRITE(IOUT,9910)TRIM(FLNM),LOCAT,FMTARG,ACCARG,FILACT
 9910 FORMAT(/,1X,'*** ERROR READING FILE "',A,'" ON UNIT ',I5,/,
     &7X,'SPECIFIED FILE FORMAT: ',A,/
     &7X,'SPECIFIED FILE ACCESS: ',A,/
     &7X,'SPECIFIED FILE ACTION: ',A,/
     &2X,'-- STOP EXECUTION (GWM1STA3AR)')
      CALL GSTOP(' ')
C
  992 CONTINUE
C-----ARRAY-ALLOCATING ERROR
      WRITE(*,9920)
 9920 FORMAT(/,1X,'*** ERROR ALLOCATING ARRAY(S)',
     &2X,'-- STOP EXECUTION (GWM1STA3AR)')
      CALL GSTOP(' ')
C
  999 CONTINUE
C-----FILE-OPENING ERROR
      INQUIRE(LOCAT,NAME=FLNM,FORM=FMTARG,ACCESS=ACCARG,ACTION=FILACT)
      WRITE(*,9990)TRIM(FLNM),LOCAT,'OLD',FMTARG,ACCARG,FILACT
      WRITE(IOUT,9990)TRIM(FLNM),LOCAT,'OLD',FMTARG,ACCARG,
     &                 FILACT
 9990 FORMAT(/,1X,'*** ERROR OPENING FILE "',A,'" ON UNIT ',I5,/,
     &7X,'SPECIFIED FILE STATUS: ',A,/
     &7X,'SPECIFIED FILE FORMAT: ',A,/
     &7X,'SPECIFIED FILE ACCESS: ',A,/
     &7X,'SPECIFIED FILE ACTION: ',A,/
     &2X,'-- STOP EXECUTION (GWM1STA3AR)')
      CALL GSTOP(' ')
C
	CONTAINS
C
C***********************************************************************
      SUBROUTINE SVREAD(SVNM,NG)
C***********************************************************************
C     ASSEMBLE A TEMPORARY LIST OF STATE VARIABLE NAMES
C       SVNM(NSVAR)- THE READ-ORDER LIST OF SVNAMES FROM ALL GRID FILES
C       NG(NSVAR)  - THE GRID FROM WHICH THE ITH SVNM WAS READ
C
      INTEGER(I4B),INTENT(INOUT)::NG(NSVAR)
      CHARACTER(LEN=10),INTENT(INOUT),DIMENSION(NSVAR)::SVNM
      INTEGER(I4B)::IOTMP
      INTEGER(I4B),ALLOCATABLE::DUMMY(:,:)
C+++++++++++++++++++++++++++++++++++++++++++++++++++++++++++++++++++++++
      IOTMP=IGETUNIT(10,200)                      ! TEMP OUTPUT UNIT  
      OPEN(UNIT=IOTMP,STATUS='SCRATCH')          ! CREATE SCRATCH FILE
      JJ=1
      DO 200 G=1,NGRIDS
        IF(FNAMEN(G).NE.' ')THEN
          CALL SGWF2BAS7PNT(G)                   ! POINT TO GRID DIMENSIONS
          LOCAT=NUNOPN(G)                        ! OBTAIN FILE #
          JSVROW=0                               ! START ROW COUNTER
          DO 120 J=1+JSVROW,NHVARG(G)+JSVROW
            READ(LOCAT,'(A)',ERR=991)LINE        ! READ PAST HEAD SV
 120      ENDDO
          JSVROW=JSVROW+NHVARG(G)
C
          DO 140 J=1+JSVROW,NRVARG(G)+JSVROW
            READ(LOCAT,'(A)',ERR=991)LINE        ! READ PAST STRFLW SV
 140      ENDDO
          JSVROW=JSVROW+NRVARG(G)
C
          DO 180 JZ=1+JSVROW,NSVARG(G)+JSVROW
            READ(LOCAT,'(A)',ERR=991)LINE        ! READ A STORAGE SV
            LLOC=1
            CALL URWORD(LINE,LLOC,INMS,INMF,0,NDUM,RDUM,IOTMP,LOCAT)
           CALL URWORD(LINE,LLOC,ISTART,ISTOP,2,SPSTRT,RDUM,IOTMP,LOCAT)
            CALL URWORD(LINE,LLOC,ISTART,ISTOP,2,SPEND,RDUM,IOTMP,LOCAT)
            CALL URWORD(LINE,LLOC,ICZS,ICZF,1,NDUM,RDUM,IOTMP,LOCAT)
            SVNM(JJ)= LINE(INMS:INMF)            ! SAVE THE NAME